Circuit: * C:\Users\caleb\Documents\GitHub\ece-capstone-2024\SimpleSim.asc

Fatal Error: Unknown SPICE device type "1" in "17f62b1fb318c25603aeb85644ae98a5d179ef807807791f6459efacb9d7ffc37a831b146dc0f06bb1ef275619162e6d8f7ad0dc708bf15ae1a1d5bd0ae623b2"
