Circuit: * C:\Users\caleb\Documents\GitHub\ece-capstone-2024\SimpleSim.asc

Direct Newton iteration failed to find .op point.  (Use ".option noopiter" to skip.)
Starting Gmin stepping
Gmin = 10
Gmin = 1.07374
Gmin = 0.115292
Gmin = 0.0123794
Gmin = 0.00132923
Gmin = 0.000142725
Gmin = 1.5325e-005
Gmin = 1.6455e-006
Gmin = 1.76685e-007
Gmin = 1.89714e-008
Gmin = 2.03704e-009
Gmin = 2.18725e-010
vernier = 0.5
Gmin = 3.6696e-011
vernier = 0.25
vernier = 0.125
vernier = 0.0625
Gmin = 2.49918e-011
vernier = 0.03125
vernier = 0.015625
vernier = 0.0078125
vernier = 0.00390625
Gmin = 2.45593e-011
vernier = 0.00195313
vernier = 0.000976563
vernier = 0.000488281
Gmin = 0
Gmin stepping succeeded in finding the operating point.


Date: Mon Nov 06 17:07:34 2023
Total elapsed time: 0.194 seconds.

tnom = 27
temp = 27
method = modified trap
totiter = 9052
traniter = 7296
tranpoints = 2421
accept = 2209
rejected = 212
matrix size = 24
fillins = 16
solver = Normal
Matrix Compiler1: 2.25 KB object code size  0.6/0.3/[0.2]
Matrix Compiler2: 2.19 KB object code size  0.3/0.4/[0.2]

