Circuit: * \\wsl.localhost\Ubuntu\home\caleb\capstone\spice\SimpleSim.asc

Direct Newton iteration failed to find .op point.  (Use ".option noopiter" to skip.)
Starting Gmin stepping
Gmin = 10
Gmin = 1.07374
Gmin = 0.115292
Gmin = 0.0123794
Gmin = 0.00132923
Gmin = 0.000142725
Gmin = 1.5325e-05
Gmin = 1.6455e-06
Gmin = 1.76685e-07
Gmin = 1.89714e-08
Gmin = 2.03704e-09
Gmin = 2.18725e-10
Gmin = 2.34854e-11
Gmin = 2.52173e-12
Gmin = 2.70769e-13
Gmin = 0
Gmin stepping succeeded in finding the operating point.


Date: Tue Oct  3 12:17:17 2023
Total elapsed time: 0.444 seconds.

tnom = 27
temp = 27
method = modified trap
totiter = 8942
traniter = 8593
tranpoints = 4113
accept = 3544
rejected = 569
matrix size = 13
fillins = 4
solver = Normal
Avg thread counts: 1.5/2.0/2.0/1.5
Matrix Compiler1: 968 bytes object code size  0.8/0.5/[0.3]
Matrix Compiler2: 1.05 KB object code size  0.4/0.5/[0.3]

