Circuit: * C:\Users\caleb\Documents\GitHub\ece-capstone-2024\SimpleSim.asc

Direct Newton iteration for .op point succeeded.

Date: Sat Nov  4 12:38:44 2023
Total elapsed time: 0.235 seconds.

tnom = 27
temp = 27
method = modified trap
totiter = 5295
traniter = 5287
tranpoints = 2521
accept = 2258
rejected = 263
matrix size = 14
fillins = 4
solver = Normal
Avg thread counts: 1.8/2.6/2.6/1.8
Matrix Compiler1: 964 bytes object code size  0.7/0.6/[0.3]
Matrix Compiler2: 1.11 KB object code size  0.4/0.6/[0.3]

